  Page 1                                    Sat Jul 23 22:50:27 2022

  ******************************************************************
  *                           E P A N E T                          *
  *                   Hydraulic and Water Quality                  *
  *                   Analysis for Pipe Networks                   *
  *                         Version 2.2                            *
  ******************************************************************
  
  Analysis begun Sat Jul 23 22:50:28 2022

  Analysis ended Sat Jul 23 22:50:29 2022
