  Page 1                                    Mon Aug 01 21:45:29 2022

  ******************************************************************
  *                           E P A N E T                          *
  *                   Hydraulic and Water Quality                  *
  *                   Analysis for Pipe Networks                   *
  *                         Version 2.2                            *
  ******************************************************************
  
  Analysis begun Mon Aug 01 21:45:30 2022

  Analysis ended Mon Aug 01 21:45:31 2022
