  Page 1                                    Tue Jul 26 01:13:07 2022

  ******************************************************************
  *                           E P A N E T                          *
  *                   Hydraulic and Water Quality                  *
  *                   Analysis for Pipe Networks                   *
  *                         Version 2.2                            *
  ******************************************************************
  
  Analysis begun Tue Jul 26 01:13:07 2022

  Analysis ended Tue Jul 26 01:13:08 2022
