  Page 1                                    Tue Aug 02 20:56:23 2022

  ******************************************************************
  *                           E P A N E T                          *
  *                   Hydraulic and Water Quality                  *
  *                   Analysis for Pipe Networks                   *
  *                         Version 2.2                            *
  ******************************************************************
  
  Analysis begun Tue Aug 02 20:56:23 2022

  Analysis ended Tue Aug 02 20:56:24 2022
