  Page 1                                    Mon Aug 01 19:33:22 2022

  ******************************************************************
  *                           E P A N E T                          *
  *                   Hydraulic and Water Quality                  *
  *                   Analysis for Pipe Networks                   *
  *                         Version 2.2                            *
  ******************************************************************
  
  Analysis begun Mon Aug 01 19:33:23 2022

  Analysis ended Mon Aug 01 19:33:24 2022
