  Page 1                                    Sat Jun 18 21:24:28 2022

  ******************************************************************
  *                           E P A N E T                          *
  *                   Hydraulic and Water Quality                  *
  *                   Analysis for Pipe Networks                   *
  *                         Version 2.2                            *
  ******************************************************************
  
  Analysis begun Sat Jun 18 21:24:28 2022

  Analysis ended Sat Jun 18 21:24:28 2022
