  Page 1                                    Sat Jul 02 22:26:04 2022

  ******************************************************************
  *                           E P A N E T                          *
  *                   Hydraulic and Water Quality                  *
  *                   Analysis for Pipe Networks                   *
  *                         Version 2.2                            *
  ******************************************************************
  
  Analysis begun Sat Jul 02 22:26:04 2022

  Analysis ended Sat Jul 02 22:26:04 2022
