  Page 1                                    Mon Jun 20 00:39:21 2022

  ******************************************************************
  *                           E P A N E T                          *
  *                   Hydraulic and Water Quality                  *
  *                   Analysis for Pipe Networks                   *
  *                         Version 2.2                            *
  ******************************************************************
  
  Analysis begun Mon Jun 20 00:39:21 2022

  Analysis ended Mon Jun 20 00:39:22 2022
