  Page 1                                    Thu Jun 16 02:23:06 2022

  ******************************************************************
  *                           E P A N E T                          *
  *                   Hydraulic and Water Quality                  *
  *                   Analysis for Pipe Networks                   *
  *                         Version 2.2                            *
  ******************************************************************
  
  Analysis begun Thu Jun 16 02:23:06 2022

   
  Hydraulic Status:
  -----------------------------------------------------------------------
     0:00:00: TCV link_2747 changed by timer control
     0:00:00: TCV link_2748 changed by timer control
     0:00:00: Balanced after 7 trials
     0:00:00: Reservoir node_2747 is emptying
     0:00:00: Reservoir node_2748 is emptying
   
     0:15:00: Balanced after 2 trials
   
     0:30:00: Balanced after 2 trials
   
     0:45:00: Balanced after 2 trials
   
     1:00:00: TCV link_2747 changed by timer control
     1:00:00: TCV link_2748 changed by timer control
     1:00:00: Balanced after 2 trials
   
     1:15:00: Balanced after 2 trials
   
     1:30:00: Balanced after 2 trials
   
     1:45:00: Balanced after 2 trials
   
     2:00:00: TCV link_2747 changed by timer control
     2:00:00: TCV link_2748 changed by timer control
     2:00:00: Balanced after 2 trials
   
     2:15:00: Balanced after 2 trials
   
     2:30:00: Balanced after 2 trials
   
     2:45:00: Balanced after 2 trials
   
     3:00:00: TCV link_2747 changed by timer control
     3:00:00: TCV link_2748 changed by timer control
     3:00:00: Balanced after 2 trials
   
     3:15:00: Balanced after 2 trials
   
     3:30:00: Balanced after 2 trials
   
     3:45:00: Balanced after 2 trials
   
     4:00:00: TCV link_2747 changed by timer control
     4:00:00: TCV link_2748 changed by timer control
     4:00:00: Balanced after 5 trials
   
     4:15:00: Balanced after 2 trials
   
     4:30:00: Balanced after 2 trials
   
     4:45:00: Balanced after 2 trials
   
     5:00:00: TCV link_2747 changed by timer control
     5:00:00: TCV link_2748 changed by timer control
     5:00:00: Balanced after 3 trials
   
     5:15:00: Balanced after 2 trials
   
     5:30:00: Balanced after 2 trials
   
     5:45:00: Balanced after 2 trials
   
     6:00:00: TCV link_2747 changed by timer control
     6:00:00: TCV link_2748 changed by timer control
     6:00:00: Balanced after 3 trials
   
     6:15:00: Balanced after 3 trials
   
     6:30:00: Balanced after 2 trials
   
     6:45:00: Balanced after 2 trials
   
     7:00:00: TCV link_2747 changed by timer control
     7:00:00: TCV link_2748 changed by timer control
     7:00:00: Balanced after 2 trials
   
     7:15:00: Balanced after 2 trials
   
     7:30:00: Balanced after 2 trials
   
     7:45:00: Balanced after 2 trials
   
     8:00:00: TCV link_2747 changed by timer control
     8:00:00: TCV link_2748 changed by timer control
     8:00:00: Balanced after 2 trials
   
     8:15:00: Balanced after 2 trials
   
     8:30:00: Balanced after 2 trials
   
     8:45:00: Balanced after 2 trials
   
     9:00:00: TCV link_2747 changed by timer control
     9:00:00: TCV link_2748 changed by timer control
     9:00:00: Balanced after 2 trials
   
     9:15:00: Balanced after 2 trials
   
     9:30:00: Balanced after 2 trials
   
     9:45:00: Balanced after 2 trials
   
    10:00:00: TCV link_2747 changed by timer control
    10:00:00: TCV link_2748 changed by timer control
    10:00:00: Balanced after 2 trials
   
    10:15:00: Balanced after 2 trials
   
    10:30:00: Balanced after 2 trials
   
    10:45:00: Balanced after 2 trials
   
    11:00:00: TCV link_2747 changed by timer control
    11:00:00: TCV link_2748 changed by timer control
    11:00:00: Balanced after 2 trials
   
    11:15:00: Balanced after 2 trials
   
    11:30:00: Balanced after 2 trials
   
    11:45:00: Balanced after 1 trials
   
    12:00:00: TCV link_2747 changed by timer control
    12:00:00: TCV link_2748 changed by timer control
    12:00:00: Balanced after 2 trials
   
    12:15:00: Balanced after 2 trials
   
    12:30:00: Balanced after 2 trials
   
    12:45:00: Balanced after 1 trials
   
    13:00:00: TCV link_2747 changed by timer control
    13:00:00: TCV link_2748 changed by timer control
    13:00:00: Balanced after 2 trials
   
    13:15:00: Balanced after 2 trials
   
    13:30:00: Balanced after 2 trials
   
    13:45:00: Balanced after 2 trials
   
    14:00:00: TCV link_2747 changed by timer control
    14:00:00: TCV link_2748 changed by timer control
    14:00:00: Balanced after 2 trials
   
    14:15:00: Balanced after 2 trials
   
    14:30:00: Balanced after 2 trials
   
    14:45:00: Balanced after 2 trials
   
    15:00:00: TCV link_2747 changed by timer control
    15:00:00: TCV link_2748 changed by timer control
    15:00:00: Balanced after 2 trials
   
    15:15:00: Balanced after 2 trials
   
    15:30:00: Balanced after 2 trials
   
    15:45:00: Balanced after 2 trials
   
    16:00:00: TCV link_2747 changed by timer control
    16:00:00: TCV link_2748 changed by timer control
    16:00:00: Balanced after 1 trials
   
    16:15:00: Balanced after 2 trials
   
    16:30:00: Balanced after 1 trials
   
    16:45:00: Balanced after 1 trials
   
    17:00:00: TCV link_2747 changed by timer control
    17:00:00: TCV link_2748 changed by timer control
    17:00:00: Balanced after 2 trials
   
    17:15:00: Balanced after 2 trials
   
    17:30:00: Balanced after 2 trials
   
    17:45:00: Balanced after 2 trials
   
    18:00:00: TCV link_2747 changed by timer control
    18:00:00: TCV link_2748 changed by timer control
    18:00:00: Balanced after 2 trials
   
    18:15:00: Balanced after 2 trials
   
    18:30:00: Balanced after 2 trials
   
    18:45:00: Balanced after 1 trials
   
    19:00:00: TCV link_2747 changed by timer control
    19:00:00: TCV link_2748 changed by timer control
    19:00:00: Balanced after 2 trials
   
    19:15:00: Balanced after 2 trials
   
    19:30:00: Balanced after 2 trials
   
    19:45:00: Balanced after 2 trials
   
    20:00:00: TCV link_2747 changed by timer control
    20:00:00: TCV link_2748 changed by timer control
    20:00:00: Balanced after 2 trials
   
    20:15:00: Balanced after 2 trials
   
    20:30:00: Balanced after 2 trials
   
    20:45:00: Balanced after 2 trials
   
    21:00:00: TCV link_2747 changed by timer control
    21:00:00: TCV link_2748 changed by timer control
    21:00:00: Balanced after 2 trials
   
    21:15:00: Balanced after 2 trials
   
    21:30:00: Balanced after 2 trials
   
    21:45:00: Balanced after 2 trials
   
    22:00:00: TCV link_2747 changed by timer control
    22:00:00: TCV link_2748 changed by timer control
    22:00:00: Balanced after 3 trials
   
    22:15:00: Balanced after 2 trials
   
    22:30:00: Balanced after 2 trials
   
    22:45:00: Balanced after 2 trials
   
    23:00:00: TCV link_2747 changed by timer control
    23:00:00: TCV link_2748 changed by timer control
    23:00:00: Balanced after 3 trials
   
    23:15:00: Balanced after 2 trials
   
    23:30:00: Balanced after 2 trials
   
    23:45:00: Balanced after 2 trials
   
    24:00:00: TCV link_2747 changed by timer control
    24:00:00: TCV link_2748 changed by timer control
    24:00:00: Balanced after 2 trials
   
  Water Quality Mass Balance (mg)
  ================================
  Initial Mass:      0.00000e+000
  Mass Inflow:       2.04825e+006
  Mass Outflow:      1.57630e+006
  Mass Reacted:      1.40508e+005
  Final Mass:        3.31435e+005
  Mass Ratio:         1.00000
  ================================
