  Page 1                                    Mon Jun 20 00:39:22 2022

  ******************************************************************
  *                           E P A N E T                          *
  *                   Hydraulic and Water Quality                  *
  *                   Analysis for Pipe Networks                   *
  *                         Version 2.2                            *
  ******************************************************************
  
  Analysis begun Mon Jun 20 00:39:22 2022

   
  Hydraulic Status:
  -----------------------------------------------------------------------
     0:00:00: TCV link_2747 changed by timer control
     0:00:00: TCV link_2748 changed by timer control
     0:00:00: Balanced after 7 trials
     0:00:00: Reservoir node_2747 is emptying
     0:00:00: Reservoir node_2748 is emptying
   
     0:15:00: Balanced after 2 trials
   
     0:30:00: Balanced after 2 trials
   
     0:45:00: Balanced after 2 trials
   
     1:00:00: TCV link_2747 changed by timer control
     1:00:00: TCV link_2748 changed by timer control
     1:00:00: Balanced after 2 trials
   
     1:15:00: Balanced after 2 trials
   
     1:30:00: Balanced after 2 trials
   
     1:45:00: Balanced after 2 trials
   
     2:00:00: TCV link_2747 changed by timer control
     2:00:00: TCV link_2748 changed by timer control
     2:00:00: Balanced after 2 trials
   
     2:15:00: Balanced after 2 trials
   
     2:30:00: Balanced after 2 trials
   
     2:45:00: Balanced after 2 trials
   
     3:00:00: TCV link_2747 changed by timer control
     3:00:00: TCV link_2748 changed by timer control
     3:00:00: Balanced after 2 trials
   
     3:15:00: Balanced after 2 trials
   
     3:30:00: Balanced after 2 trials
   
     3:45:00: Balanced after 2 trials
   
     4:00:00: TCV link_2747 changed by timer control
     4:00:00: TCV link_2748 changed by timer control
     4:00:00: Balanced after 5 trials
   
     4:15:00: Balanced after 2 trials
   
     4:30:00: Balanced after 2 trials
   
     4:45:00: Balanced after 2 trials
   
     5:00:00: TCV link_2747 changed by timer control
     5:00:00: TCV link_2748 changed by timer control
     5:00:00: Balanced after 3 trials
   
     5:15:00: Balanced after 2 trials
   
     5:30:00: Balanced after 2 trials
   
     5:45:00: Balanced after 2 trials
   
     6:00:00: TCV link_2747 changed by timer control
     6:00:00: TCV link_2748 changed by timer control
     6:00:00: Balanced after 3 trials
   
     6:15:00: Balanced after 3 trials
   
     6:30:00: Balanced after 2 trials
   
     6:45:00: Balanced after 2 trials
   
     7:00:00: TCV link_2747 changed by timer control
     7:00:00: TCV link_2748 changed by timer control
     7:00:00: Balanced after 2 trials
   
     7:15:00: Balanced after 2 trials
   
     7:30:00: Balanced after 2 trials
   
     7:45:00: Balanced after 2 trials
   
     8:00:00: TCV link_2747 changed by timer control
     8:00:00: TCV link_2748 changed by timer control
     8:00:00: Balanced after 2 trials
   
     8:15:00: Balanced after 2 trials
   
     8:30:00: Balanced after 2 trials
   
     8:45:00: Balanced after 2 trials
   
     9:00:00: TCV link_2747 changed by timer control
     9:00:00: TCV link_2748 changed by timer control
     9:00:00: Balanced after 2 trials
   
     9:15:00: Balanced after 2 trials
   
     9:30:00: Balanced after 2 trials
   
     9:45:00: Balanced after 2 trials
   
    10:00:00: TCV link_2747 changed by timer control
    10:00:00: TCV link_2748 changed by timer control
    10:00:00: Balanced after 2 trials
   
    10:15:00: Balanced after 2 trials
   
    10:30:00: Balanced after 2 trials
   
    10:45:00: Balanced after 2 trials
   
    11:00:00: TCV link_2747 changed by timer control
    11:00:00: TCV link_2748 changed by timer control
    11:00:00: Balanced after 2 trials
   
    11:15:00: Balanced after 2 trials
   
    11:30:00: Balanced after 2 trials
   
    11:45:00: Balanced after 1 trials
   
    12:00:00: TCV link_2747 changed by timer control
    12:00:00: TCV link_2748 changed by timer control
    12:00:00: Balanced after 2 trials
   
    12:15:00: Balanced after 2 trials
   
    12:30:00: Balanced after 2 trials
   
    12:45:00: Balanced after 1 trials
   
    13:00:00: TCV link_2747 changed by timer control
    13:00:00: TCV link_2748 changed by timer control
    13:00:00: Balanced after 2 trials
   
    13:15:00: Balanced after 2 trials
   
    13:30:00: Balanced after 2 trials
   
    13:45:00: Balanced after 2 trials
   
    14:00:00: TCV link_2747 changed by timer control
    14:00:00: TCV link_2748 changed by timer control
    14:00:00: Balanced after 2 trials
   
    14:15:00: Balanced after 2 trials
   
    14:30:00: Balanced after 2 trials
   
    14:45:00: Balanced after 2 trials
   
    15:00:00: TCV link_2747 changed by timer control
    15:00:00: TCV link_2748 changed by timer control
    15:00:00: Balanced after 2 trials
   
    15:15:00: Balanced after 2 trials
   
    15:30:00: Balanced after 2 trials
   
    15:45:00: Balanced after 2 trials
   
    16:00:00: TCV link_2747 changed by timer control
    16:00:00: TCV link_2748 changed by timer control
    16:00:00: Balanced after 1 trials
   
    16:15:00: Balanced after 2 trials
   
    16:30:00: Balanced after 1 trials
   
    16:45:00: Balanced after 1 trials
   
    17:00:00: TCV link_2747 changed by timer control
    17:00:00: TCV link_2748 changed by timer control
    17:00:00: Balanced after 2 trials
   
    17:15:00: Balanced after 2 trials
   
    17:30:00: Balanced after 2 trials
   
    17:45:00: Balanced after 2 trials
   
    18:00:00: TCV link_2747 changed by timer control
    18:00:00: TCV link_2748 changed by timer control
    18:00:00: Balanced after 2 trials
   
    18:15:00: Balanced after 2 trials
   
    18:30:00: Balanced after 2 trials
   
    18:45:00: Balanced after 1 trials
   
    19:00:00: TCV link_2747 changed by timer control
    19:00:00: TCV link_2748 changed by timer control
    19:00:00: Balanced after 2 trials
   
    19:15:00: Balanced after 2 trials
   
    19:30:00: Balanced after 2 trials
   
    19:45:00: Balanced after 2 trials
   
    20:00:00: TCV link_2747 changed by timer control
    20:00:00: TCV link_2748 changed by timer control
    20:00:00: Balanced after 2 trials
   
    20:15:00: Balanced after 2 trials
   
    20:30:00: Balanced after 2 trials
   
    20:45:00: Balanced after 2 trials
   
    21:00:00: TCV link_2747 changed by timer control
    21:00:00: TCV link_2748 changed by timer control
    21:00:00: Balanced after 2 trials
   
    21:15:00: Balanced after 2 trials
   
    21:30:00: Balanced after 2 trials
   
    21:45:00: Balanced after 2 trials
   
    22:00:00: TCV link_2747 changed by timer control
    22:00:00: TCV link_2748 changed by timer control
    22:00:00: Balanced after 3 trials
   
    22:15:00: Balanced after 2 trials
   
    22:30:00: Balanced after 2 trials
   
    22:45:00: Balanced after 2 trials
   
    23:00:00: TCV link_2747 changed by timer control
    23:00:00: TCV link_2748 changed by timer control
    23:00:00: Balanced after 3 trials
   
    23:15:00: Balanced after 2 trials
   
    23:30:00: Balanced after 2 trials
   
    23:45:00: Balanced after 2 trials
   
    24:00:00: TCV link_2747 changed by timer control
    24:00:00: TCV link_2748 changed by timer control
    24:00:00: Balanced after 2 trials
   
    24:15:00: Balanced after 2 trials
   
    24:30:00: Balanced after 2 trials
   
    24:45:00: Balanced after 2 trials
   
    25:00:00: Balanced after 2 trials
   
    25:15:00: Balanced after 2 trials
   
    25:30:00: Balanced after 2 trials
   
    25:45:00: Balanced after 2 trials
   
    26:00:00: Balanced after 2 trials
   
    26:15:00: Balanced after 2 trials
   
    26:30:00: Balanced after 2 trials
   
    26:45:00: Balanced after 2 trials
   
    27:00:00: Balanced after 2 trials
   
    27:15:00: Balanced after 2 trials
   
    27:30:00: Balanced after 2 trials
   
    27:45:00: Balanced after 2 trials
   
    28:00:00: Balanced after 2 trials
   
    28:15:00: Balanced after 2 trials
   
    28:30:00: Balanced after 2 trials
   
    28:45:00: Balanced after 2 trials
   
    29:00:00: Balanced after 2 trials
   
    29:15:00: Balanced after 2 trials
   
    29:30:00: Balanced after 2 trials
   
    29:45:00: Balanced after 2 trials
   
    30:00:00: Balanced after 2 trials
   
    30:15:00: Balanced after 2 trials
   
    30:30:00: Balanced after 2 trials
   
    30:45:00: Balanced after 2 trials
   
    31:00:00: Balanced after 2 trials
   
    31:15:00: Balanced after 2 trials
   
    31:30:00: Balanced after 2 trials
   
    31:45:00: Balanced after 2 trials
   
    32:00:00: Balanced after 2 trials
   
    32:15:00: Balanced after 2 trials
   
    32:30:00: Balanced after 2 trials
   
    32:45:00: Balanced after 2 trials
   
    33:00:00: Balanced after 2 trials
   
    33:15:00: Balanced after 2 trials
   
    33:30:00: Balanced after 2 trials
   
    33:45:00: Balanced after 2 trials
   
    34:00:00: Balanced after 2 trials
   
    34:15:00: Balanced after 2 trials
   
    34:30:00: Balanced after 1 trials
   
    34:45:00: Balanced after 2 trials
   
    35:00:00: Balanced after 2 trials
   
    35:15:00: Balanced after 2 trials
   
    35:30:00: Balanced after 2 trials
   
    35:45:00: Balanced after 1 trials
   
    36:00:00: Balanced after 2 trials
   
    36:15:00: Balanced after 2 trials
   
    36:30:00: Balanced after 2 trials
   
    36:45:00: Balanced after 1 trials
   
    37:00:00: Balanced after 2 trials
   
    37:15:00: Balanced after 2 trials
   
    37:30:00: Balanced after 2 trials
   
    37:45:00: Balanced after 2 trials
   
    38:00:00: Balanced after 2 trials
   
    38:15:00: Balanced after 2 trials
   
    38:30:00: Balanced after 2 trials
   
    38:45:00: Balanced after 2 trials
   
    39:00:00: Balanced after 2 trials
   
    39:15:00: Balanced after 2 trials
   
    39:30:00: Balanced after 2 trials
   
    39:45:00: Balanced after 2 trials
   
    40:00:00: Balanced after 1 trials
   
    40:15:00: Balanced after 2 trials
   
    40:30:00: Balanced after 1 trials
   
    40:45:00: Balanced after 1 trials
   
    41:00:00: Balanced after 2 trials
   
    41:15:00: Balanced after 2 trials
   
    41:30:00: Balanced after 2 trials
   
    41:45:00: Balanced after 2 trials
   
    42:00:00: Balanced after 2 trials
   
    42:15:00: Balanced after 2 trials
   
    42:30:00: Balanced after 2 trials
   
    42:45:00: Balanced after 1 trials
   
    43:00:00: Balanced after 2 trials
   
    43:15:00: Balanced after 2 trials
   
    43:30:00: Balanced after 2 trials
   
    43:45:00: Balanced after 2 trials
   
    44:00:00: Balanced after 2 trials
   
    44:15:00: Balanced after 2 trials
   
    44:30:00: Balanced after 2 trials
   
    44:45:00: Balanced after 2 trials
   
    45:00:00: Balanced after 2 trials
   
    45:15:00: Balanced after 2 trials
   
    45:30:00: Balanced after 2 trials
   
    45:45:00: Balanced after 2 trials
   
    46:00:00: Balanced after 2 trials
   
    46:15:00: Balanced after 2 trials
   
    46:30:00: Balanced after 2 trials
   
    46:45:00: Balanced after 2 trials
   
    47:00:00: Balanced after 2 trials
   
    47:15:00: Balanced after 2 trials
   
    47:30:00: Balanced after 2 trials
   
    47:45:00: Balanced after 2 trials
   
    48:00:00: Balanced after 2 trials
   
    48:15:00: Balanced after 2 trials
   
    48:30:00: Balanced after 2 trials
   
    48:45:00: Balanced after 2 trials
   
    49:00:00: Balanced after 2 trials
   
    49:15:00: Balanced after 2 trials
   
    49:30:00: Balanced after 2 trials
   
    49:45:00: Balanced after 2 trials
   
    50:00:00: Balanced after 2 trials
   
    50:15:00: Balanced after 2 trials
   
    50:30:00: Balanced after 2 trials
   
    50:45:00: Balanced after 2 trials
   
    51:00:00: Balanced after 2 trials
   
    51:15:00: Balanced after 2 trials
   
    51:30:00: Balanced after 2 trials
   
    51:45:00: Balanced after 2 trials
   
    52:00:00: Balanced after 2 trials
   
    52:15:00: Balanced after 2 trials
   
    52:30:00: Balanced after 2 trials
   
    52:45:00: Balanced after 2 trials
   
    53:00:00: Balanced after 2 trials
   
    53:15:00: Balanced after 2 trials
   
    53:30:00: Balanced after 2 trials
   
    53:45:00: Balanced after 2 trials
   
    54:00:00: Balanced after 2 trials
   
    54:15:00: Balanced after 2 trials
   
    54:30:00: Balanced after 2 trials
   
    54:45:00: Balanced after 2 trials
   
    55:00:00: Balanced after 2 trials
   
    55:15:00: Balanced after 2 trials
   
    55:30:00: Balanced after 2 trials
   
    55:45:00: Balanced after 2 trials
   
    56:00:00: Balanced after 2 trials
   
    56:15:00: Balanced after 2 trials
   
    56:30:00: Balanced after 2 trials
   
    56:45:00: Balanced after 2 trials
   
    57:00:00: Balanced after 2 trials
   
    57:15:00: Balanced after 2 trials
   
    57:30:00: Balanced after 2 trials
   
    57:45:00: Balanced after 2 trials
   
    58:00:00: Balanced after 2 trials
   
    58:15:00: Balanced after 2 trials
   
    58:30:00: Balanced after 1 trials
   
    58:45:00: Balanced after 2 trials
   
    59:00:00: Balanced after 2 trials
   
    59:15:00: Balanced after 2 trials
   
    59:30:00: Balanced after 2 trials
   
    59:45:00: Balanced after 1 trials
   
    60:00:00: Balanced after 2 trials
   
    60:15:00: Balanced after 2 trials
   
    60:30:00: Balanced after 2 trials
   
    60:45:00: Balanced after 1 trials
   
    61:00:00: Balanced after 2 trials
   
    61:15:00: Balanced after 2 trials
   
    61:30:00: Balanced after 2 trials
   
    61:45:00: Balanced after 2 trials
   
    62:00:00: Balanced after 2 trials
   
    62:15:00: Balanced after 2 trials
   
    62:30:00: Balanced after 2 trials
   
    62:45:00: Balanced after 2 trials
   
    63:00:00: Balanced after 2 trials
   
    63:15:00: Balanced after 2 trials
   
    63:30:00: Balanced after 2 trials
   
    63:45:00: Balanced after 2 trials
   
    64:00:00: Balanced after 1 trials
   
    64:15:00: Balanced after 2 trials
   
    64:30:00: Balanced after 1 trials
   
    64:45:00: Balanced after 1 trials
   
    65:00:00: Balanced after 2 trials
   
    65:15:00: Balanced after 2 trials
   
    65:30:00: Balanced after 2 trials
   
    65:45:00: Balanced after 2 trials
   
    66:00:00: Balanced after 2 trials
   
    66:15:00: Balanced after 2 trials
   
    66:30:00: Balanced after 2 trials
   
    66:45:00: Balanced after 1 trials
   
    67:00:00: Balanced after 2 trials
   
    67:15:00: Balanced after 2 trials
   
    67:30:00: Balanced after 2 trials
   
    67:45:00: Balanced after 2 trials
   
    68:00:00: Balanced after 2 trials
   
    68:15:00: Balanced after 2 trials
   
    68:30:00: Balanced after 2 trials
   
    68:45:00: Balanced after 2 trials
   
    69:00:00: Balanced after 2 trials
   
    69:15:00: Balanced after 2 trials
   
    69:30:00: Balanced after 2 trials
   
    69:45:00: Balanced after 2 trials
   
    70:00:00: Balanced after 2 trials
   
    70:15:00: Balanced after 2 trials
   
    70:30:00: Balanced after 2 trials
   
    70:45:00: Balanced after 2 trials
   
    71:00:00: Balanced after 2 trials
   
    71:15:00: Balanced after 2 trials
   
    71:30:00: Balanced after 2 trials
   
    71:45:00: Balanced after 2 trials
   
    72:00:00: Balanced after 2 trials
   
  Water Quality Mass Balance (mg)
  ================================
  Initial Mass:      0.00000e+000
  Mass Inflow:       3.81132e+006
  Mass Outflow:      2.45183e+006
  Mass Reacted:      1.19828e+006
  Final Mass:        1.61202e+005
  Mass Ratio:         1.00000
  ================================
